[TITLES]
Scenario: Base
Date:2020-11-30 10:38:59
[RESERVOIRS]
RE0000001	50	

[JUNCTIONS]
DWVA0000004	28.6007347106934		
DWVA0000005	24.8085098266602		
DWVA0000001	24.5587711334229		
DWVA0000006	31.9454135894775		
DWVA0000007	33.8369979858398		
DWVA0000003	31.9181575775146		
DWVA0000008	26.5545845031738		
DWVA0000009	17.653450012207		
DWVA0000002	42.5		
UPVA0000004	23.6420249938965		
UPVA0000007	30.309700012207		
UPVA0000001	29.543155670166		
UPVA0000005	32.1051788330078		
UPVA0000008	32.1448249816895		
UPVA0000002	38.5401077270508		
UPVA0000003	33.7931632995605		
UPVA0000006	35.5587730407715		
UPVA0000009	17.1534519195557		
JD0000181	30.207555770874	0.140000	
JD0000163	30.7957077026367	0.140000	
JD0000160	22.0545845031738	0.140000	
JD0000169	26.7500019073486	0.140000	
JD0000637	31.5448112487793	0.140000	
JD0000549	42.1716690063477	0.140000	
JD0000104	32.747200012207	0.140000	
JD0000651	29.9999980926514	0.140000	
JD0000095	39	0.140000	
JD0000469	23.3777980804443	0.140000	
JD0000158	29.5965461730957	0.140000	
JD0000420	36.8353538513184	0.140000	
JD0000548	41.0711250305176	0.140000	
JD0000319	27.4829750061035	0.140000	
JD0000301	18.5818405151367	0.140000	
JD0000118	29.3551788330078	0.140000	
JD0000576	21.4999980926514	0.140000	
JD0000517	24.3439788818359	0.140000	
JD0000650	31.3479747772217	0.140000	
JD0000277	18.7364845275879	0.140000	
JD0000001	30.8985633850098	0.140000	
JD0000499	24.4801769256592	0.140000	
JD0000681	33.7681884765625	0.140000	
JD0000153	30.721549987793	0.140000	
JD0000422	34.9405288696289	0.140000	
JD0000258	13.9999980926514	0.140000	
JD0000127	25.2215518951416	0.140000	
JD0000436	32.4430999755859	0.140000	
JD0000484	15.2371845245361	0.140000	
JD0000041	35.5991134643555	0.140000	
JD0000243	20.3239269256592	0.140000	
JD0000178	34.9489288330078	0.140000	
JD0000236	29.9568405151367	0.140000	
JD0000670	33.8773231506348	0.140000	
JD0000165	27.5	0.140000	
JD0000198	42.497200012207	0.140000	
JD0000465	23.3542137145996	0.140000	
JD0000638	29.0126209259033	0.140000	
JD0000479	17.122200012207	0.140000	
JD0000011	24.25	0.140000	
JD0000615	41.8726844787598	0.140000	
JD0000596	29.2500019073486	0.140000	
JD0000096	39.9083366394043	0.140000	
JD0000279	17.125	0.140000	
JD0000377	28.7896480560303	0.140000	
JD0000100	27.5000019073486	0.140000	
JD0000026	28.6250038146973	0.140000	
JD0000033	31.1930961608887	0.140000	
JD0000308	19.2644443511963	0.140000	
JD0000135	23.1930999755859	0.140000	
JD0000050	40.903450012207	0.140000	
JD0000295	15.6497097015381	0.140000	
JD0000595	29.7527980804443	0.140000	
JD0000392	32.0396461486816	0.140000	
JD0000222	42.6278038024902	0.135000	
JD0000315	21.4034519195557	0.140000	
JD0000603	42.1163749694824	0.140000	
JD0000628	44.7229690551758	0.140000	
JD0000473	20.7068405151367	0.140000	
JD0000554	39.7555961608887	0.140000	
JD0000656	26.2726211547852	0.140000	
JD0000686	36.9999961853027	0.140000	
JD0000384	35.4405288696289	0.140000	
JD0000010	30.309700012207	0.140000	
JD0000043	40.8750038146973	0.140000	
JD0000663	32.6704521179199	0.140000	
JD0000708	36.2896499633789	0.140000	
JD0000139	32.2103538513184	0.140000	
JD0000259	14.9375009536743	0.140000	
JD0000323	29.1177978515625	0.140000	
JD0000375	29.3750019073486	0.140000	
JD0000324	27.8948230743408	0.140000	
JD0000327	33.8363151550293	0.140000	
JD0000644	43	0.140000	
JD0000586	20.418155670166	0.140000	
JD0000197	44.0386848449707	0.140000	
JD0000356	31.3822040557861	0.140000	
JD0000170	23.6420249938965	0.140000	
JD0000097	31.8155269622803	0.140000	
JD0000503	24	0.140000	
JD0000240	22.6742172241211	0.140000	
JD0000693	36.3551750183105	0.140000	
JD0000078	26.8551769256592	0.140000	
JD0000151	26.75	0.140000	
JD0000533	16.7555980682373	0.140000	
JD0000203	44.722972869873	0.140000	
JD0000389	35	0.140000	
JD0000537	33.4174461364746	0.140000	
JD0000423	33.7108001708984	0.140000	
JD0000254	15.368691444397	0.140000	
JD0000539	34.3180961608887	0.140000	
JD0000298	16.125	0.140000	
JD0000620	44.4864845275879	0.140000	
JD0000166	27.6905269622803	0.140000	
JD0000184	28.2670249938965	0.140000	
JD0000018	27.2103519439697	0.140000	
JD0000703	28.7527980804443	0.140000	
JD0000276	19.4860038757324	0.140000	
JD0000022	24.9999980926514	0.140000	
JD0000307	19.4964904785156	0.140000	
JD0000281	18.6385135650635	0.140000	
JD0000231	40.4319038391113	0.135000	
JD0000602	41.5135116577148	0.140000	
JD0000665	31.25	0.140000	
JD0000689	39.25	0.140000	
JD0000083	31.7527980804443	0.140000	
JD0000424	34.4071884155273	0.140000	
JD0000559	36.027027130127	0.140000	
JD0000149	24.9864826202393	0.140000	
JD0000526	30.5398406982422	0.140000	
JD0000103	31.1930961608887	0.140000	
JD0000518	21	0.140000	
JD0000304	16.6361961364746	0.140000	
JD0000214	43.5531578063965	0.135000	
JD0000125	30.25	0.140000	
JD0000530	25.8013038635254	0.140000	
JD0000341	17.4034519195557	0.140000	
JD0000329	35.5000038146973	0.140000	
JD0000470	19.8316116333008	0.140000	
JD0000508	30.3094711303711	0.140000	
JD0000486	18.4468402862549	0.140000	
JD0000550	40.9916038513184	0.140000	
JD0000029	30.7821922302246	0.140000	
JD0000190	36.9666633605957	0.140000	
JD0000404	33.0515327453613	0.140000	
JD0000082	32.34375	0.140000	
JD0000142	25.1259269714355	0.140000	
JD0000284	18.7635116577148	0.140000	
JD0000348	26.0513019561768	0.140000	
JD0000275	19.7921943664551	0.140000	
JD0000116	31.9288711547852	0.140000	
JD0000338	27.25	0.140000	
JD0000657	27.3778018951416	0.140000	
JD0000457	34.971549987793	0.140000	
JD0000374	27.7098903656006	0.140000	
JD0000547	38.293155670166	0.140000	
JD0000051	42	0.140000	
JD0000678	34.0055961608887	0.140000	
JD0000090	32.0135154724121	0.140000	
JD0000024	32.0680961608887	0.140000	
JD0000150	26.3705253601074	0.140000	
JD0000510	27.5680961608887	0.140000	
JD0000719	37.2453651428223	0.140000	
JD0000361	31.9454135894775	0.140000	
JD0000667	23.6019153594971	0.140000	
JD0000431	25.3409538269043	0.140000	
JD0000217	48.043155670166	0.135000	
JD0000541	36.375	0.140000	
JD0000634	35.875	0.140000	
JD0000297	16	0.140000	
JD0000618	41.2868461608887	0.140000	
JD0000669	32.612377166748	0.140000	
JD0000370	29.573694229126	0.140000	
JD0000272	17.6611480712891	0.140000	
JD0000162	30.3833980560303	0.140000	
JD0000260	15	0.140000	
JD0000497	16.5261344909668	0.140000	
JD0000271	17.7113151550293	0.140000	
JD0000491	17.7472019195557	0.140000	
JD0000342	16.6681575775146	0.140000	
JD0000557	35.527027130127	0.140000	
JD0000074	33.346549987793	0.140000	
JD0000133	26.5545845031738	0.140000	
JD0000716	39.2166595458984	0.140000	
JD0000085	39.106819152832	0.140000	
JD0000621	43.4638442993164	0.140000	
JD0000616	42.5000038146973	0.140000	
JD0000221	42.1487770080566	0.135000	
JD0000126	17.75	0.140000	
JD0000176	33.25	0.140000	
JD0000355	31.1249980926514	0.140000	
JD0000239	22.2635135650635	0.140000	
JD0000699	25.347972869873	0.140000	
JD0000463	22.3124980926514	0.140000	
JD0000128	24.4603538513184	0.140000	
JD0000293	20.027027130127	0.140000	
JD0000572	34.3705253601074	0.140000	
JD0000350	27.5965461730957	0.140000	
JD0000426	34.7886810302734	0.140000	
JD0000591	33.4291038513184	0.140000	
JD0000485	16.6723480224609	0.140000	
JD0000093	36.4944000244141	0.140000	
JD0000005	23.9999980926514	0.140000	
JD0000480	17.653450012207	0.140000	
JD0000119	31.7471981048584	0.140000	
JD0000704	35.065299987793	0.140000	
JD0000504	24.3749980926514	0.140000	
JD0000208	42.1847038269043	0.140000	
JD0000209	41.6186904907227	0.140000	
JD0000439	31.7166633605957	0.140000	
JD0000574	34.5055999755859	0.140000	
JD0000722	37.2635154724121	0.140000	
JD0000138	32.125	0.140000	
JD0000454	34.3516654968262	0.140000	
JD0000493	16.0135135650635	0.140000	
JD0000642	29.7555999755859	0.140000	
JD0000154	31.8551731109619	0.140000	
JD0000210	40.2931594848633	0.140000	
JD0000544	35.8045845031738	0.140000	
JD0000382	29.372200012207	0.140000	
JD0000442	29.8750019073486	0.140000	
JD0000462	29.9078922271729	0.140000	
JD0000646	31.2499980926514	0.140000	
JD0000235	32.4801788330078	0.140000	
JD0000627	42.722972869873	0.140000	
JD0000597	29.2886867523193	0.140000	
JD0000343	16.5569019317627	0.140000	
JD0000593	32.8549270629883	0.140000	
JD0000402	31.0597038269043	0.140000	
JD0000701	26.0135135650635	0.140000	
JD0000562	37.875	0.140000	
JD0000460	31.9034519195557	0.140000	
JD0000064	34.8152961730957	0.140000	
JD0000056	29.6333961486816	0.140000	
JD0000583	23.9857749938965	0.140000	
JD0000273	15.1879806518555	0.140000	
JD0000200	42.206844329834	0.140000	
JD0000220	28.7241134643555	0.135000	
JD0000654	27.0135135650635	0.140000	
JD0000474	19.2131538391113	0.140000	
JD0000645	30.6781635284424	0.140000	
JD0000053	40.9864883422852	0.140000	
JD0000087	35.6138038635254	0.140000	
JD0000688	41.75	0.140000	
JD0000132	22.6681594848633	0.140000	
JD0000506	25.7500019073486	0.140000	
JD0000447	33.346549987793	0.140000	
JD0000063	33.25	0.140000	
JD0000129	23.5680961608887	0.140000	
JD0000391	34	0.140000	
JD0000456	35.9603500366211	0.140000	
JD0000412	30.0569019317627	0.140000	
JD0000674	32.8579750061035	0.140000	
JD0000249	15.6249990463257	0.140000	
JD0000636	32.5000038146973	0.140000	
JD0000215	43.2499961853027	0.135000	
JD0000561	37.206169128418	0.140000	
JD0000414	29.9729747772217	0.140000	
JD0000513	33.6361999511719	0.140000	
JD0000035	34.5368499755859	0.140000	
JD0000399	32.0853500366211	0.140000	
JD0000266	20.9603519439697	0.140000	
JD0000717	37.6194000244141	0.140000	
JD0000658	26.8749980926514	0.140000	
JD0000080	35.0979690551758	0.140000	
JD0000199	42.6683921813965	0.140000	
PJD0000002	40	0.100000	
JD0000682	34.625	0.140000	
JD0000264	15.5170249938965	0.140000	
JD0000379	28.3614845275879	0.140000	
JD0000309	19.1844711303711	0.140000	
JD0000109	34.6249961853027	0.140000	
JD0000207	44.647632598877	0.140000	
JD0000551	40.1250038146973	0.140000	
JD0000289	18.75	0.140000	
JD0000521	19.3097019195557	0.140000	
JD0000495	16.7698211669922	0.140000	
JD0000396	23.4535980224609	0.140000	
JD0000071	32.3920249938965	0.140000	
JD0000367	21.3831691741943	0.140000	
JD0000519	21.1681575775146	0.140000	
JD0000467	22.4864864349365	0.140000	
JD0000004	24.5587711334229	0.140000	
JD0000611	47.0431594848633	0.140000	
JD0000648	33.4333229064941	0.140000	
JD0000168	25.6249980926514	0.140000	
JD0000718	37.1986999511719	0.140000	
JD0000721	31.185396194458	0.140000	
JD0000729	30	0.140000	
JD0000152	27.4181575775146	0.140000	
JD0000167	27.6930980682373	0.140000	
JD0000332	21.4181575775146	0.140000	
JD0000376	28.0431537628174	0.140000	
JD0000632	38.6107788085938	0.140000	
JD0000012	24.1681594848633	0.140000	
JD0000211	38.2224731445313	0.140000	
JD0000405	26.4402980804443	0.140000	
JD0000013	24.1618480682373	0.140000	
JD0000400	32.2931594848633	0.140000	
JD0000156	24.7103519439697	0.140000	
JD0000528	24.222972869873	0.140000	
JD0000608	41.5396461486816	0.140000	
JD0000427	31.1844692230225	0.140000	
JD0000009	18.8180980682373	0.140000	
JD0000027	30.0863132476807	0.140000	
JD0000292	16.7886829376221	0.140000	
JD0000081	41.9801750183105	0.140000	
JD0000257	13.9999980926514	0.140000	
JD0000723	37.5424461364746	0.140000	
JD0000512	30.4929809570313	0.140000	
JD0000205	42.950798034668	0.140000	
JD0000349	27.8747482299805	0.140000	
JD0000386	34.9613151550293	0.140000	
JD0000380	28.872200012207	0.140000	
JD0000091	32.1448249816895	0.140000	
JD0000622	44.4486999511719	0.140000	
JD0000225	52.2500038146973	0.135000	
JD0000673	35.5680999755859	0.140000	
JD0000516	27.6422519683838	0.140000	
JD0000725	38.6114845275879	0.140000	
JD0000369	28.972972869873	0.140000	
JD0000066	43.0979690551758	0.140000	
JD0000683	34.625	0.140000	
JD0000121	25.0207195281982	0.140000	
JD0000407	26.0429077148438	0.140000	
JD0000248	15.0135135650635	0.140000	
JD0000626	42.4729766845703	0.140000	
JD0000352	29.3638038635254	0.140000	
JD0000234	38.2957077026367	0.140000	
JD0000362	30.6385116577148	0.140000	
JD0000666	29.7453651428223	0.140000	
JD0000345	18.875	0.140000	
JD0000282	18.5431575775146	0.140000	
JD0000006	17.8551769256592	0.140000	
JD0000604	43.7364807128906	0.140000	
JD0000360	22.2500019073486	0.140000	
JD0000599	36.4801788330078	0.140000	
JD0000290	19.1905288696289	0.140000	
JD0000531	16.0683269500732	0.140000	
JD0000317	24.4999980926514	0.140000	
JD0000440	26.8948211669922	0.140000	
JD0000058	37.543155670166	0.140000	
JD0000161	21.9999980926514	0.140000	
JD0000219	45.2723922729492	0.135000	
JD0000692	31.0368480682373	0.140000	
JD0000099	27.4542961120605	0.140000	
JD0000268	17.1448249816895	0.140000	
JD0000403	29.75	0.140000	
JD0000448	32.6385154724121	0.140000	
JD0000357	27.6114864349365	0.140000	
JD0000283	27.3353519439697	0.140000	
JD0000227	53.747428894043	0.135000	
JD0000398	33.5088577270508	0.140000	
JD0000625	41.5937461853027	0.140000	
JD0000303	16.5139942169189	0.140000	
JD0000115	40.7705001831055	0.140000	
JD0000482	16.90065574646	0.140000	
JD0000452	35.6114845275879	0.140000	
JD0000206	42.0135116577148	0.140000	
JD0000094	37.7632637023926	0.140000	
JD0000180	31.4773750305176	0.140000	
JD0000191	38.5401077270508	0.140000	
JD0000397	18.9523677825928	0.140000	
JD0000655	25.6476230621338	0.140000	
JD0000661	30.3227348327637	0.140000	
JD0000213	43.825798034668	0.135000	
JD0000419	36.788948059082	0.140000	
JD0000490	17.0135135650635	0.140000	
JD0000478	17.1534519195557	0.140000	
JD0000558	35.8180961608887	0.140000	
JD0000052	36.2094573974609	0.140000	
JD0000347	26.096549987793	0.140000	
JD0000631	39.5965538024902	0.140000	
JD0000417	31.4999980926514	0.140000	
JD0000344	16.293155670166	0.140000	
JD0000535	33.6681594848633	0.140000	
JD0000086	35.7364845275879	0.140000	
JD0000137	23.1681575775146	0.140000	
JD0000609	40.2068405151367	0.140000	
JD0000416	30.7042961120605	0.140000	
JD0000105	38.471549987793	0.140000	
JD0000075	29.1784267425537	0.140000	
JD0000624	49.0485076904297	0.140000	
JD0000680	33.7567596435547	0.140000	
JD0000677	32.5853576660156	0.140000	
JD0000017	27.5797576904297	0.140000	
JD0000008	18.2886810302734	0.140000	
JD0000244	21.0044765472412	0.140000	
JD0000664	33.0457038879395	0.140000	
JD0000325	32.8325500488281	0.140000	
JD0000328	35.5587730407715	0.140000	
JD0000411	30.6476249694824	0.140000	
JD0000662	32.0995750427246	0.140000	
JD0000321	30.4944000244141	0.140000	
JD0000286	26.2499980926514	0.140000	
JD0000690	36.9648284912109	0.140000	
JD0000003	29.543155670166	0.140000	
JD0000014	24.121488571167	0.140000	
JD0000555	37.7157211303711	0.140000	
JD0000218	46.4999961853027	0.135000	
JD0000032	26.8777961730957	0.135000	
JD0000401	31.0233345031738	0.140000	
JD0000253	15.961314201355	0.140000	
JD0000488	18.0464038848877	0.140000	
JD0000113	29.6497077941895	0.140000	
JD0000706	36.9517250061035	0.140000	
JD0000573	38.8833999633789	0.140000	
JD0000195	42.0135116577148	0.140000	
JD0000410	30.5569019317627	0.140000	
JD0000444	31.111930847168	0.140000	
JD0000330	17.75	0.140000	
JD0000579	20.3551750183105	0.140000	
JD0000553	40.2329750061035	0.140000	
JD0000720	35.6646461486816	0.140000	
JD0000713	36.1448249816895	0.140000	
JD0000629	45.5783309936523	0.140000	
JD0000274	18.943811416626	0.140000	
JD0000498	15.7500009536743	0.140000	
JD0000365	29.4319038391113	0.140000	
JD0000084	37.3045845031738	0.140000	
JD0000007	17.6313095092773	0.140000	
JD0000388	34.6448211669922	0.140000	
JD0000299	16.706844329834	0.140000	
JD0000174	33.7546348571777	0.140000	
JD0000339	22.6860904693604	0.140000	
JD0000584	25.543155670166	0.140000	
JD0000653	27.5139980316162	0.140000	
JD0000515	36.4999961853027	0.140000	
JD0000687	42.295711517334	0.140000	
JD0000318	24.9640922546387	0.140000	
JD0000676	29.9971981048584	0.140000	
JD0000114	41.2499961853027	0.140000	
JD0000068	43.3551750183105	0.140000	
JD0000364	29.0083961486816	0.140000	
JD0000108	33.2500038146973	0.140000	
JD0000441	28.456844329834	0.140000	
JD0000514	34.1846961975098	0.140000	
JD0000459	36.668155670166	0.140000	
JD0000487	18.752799987793	0.140000	
JD0000575	41.2635154724121	0.140000	
JD0000311	20.5396461486816	0.140000	
JD0000334	17.7635135650635	0.140000	
JD0000067	43.5781517028809	0.140000	
JD0000577	20.4631500244141	0.140000	
JD0000525	28.4738674163818	0.140000	
JD0000428	30.125	0.140000	
JD0000489	16.2283058166504	0.140000	
JD0000483	15.6448221206665	0.140000	
JD0000046	33.8750076293945	0.140000	
JD0000546	37.5027961730957	0.140000	
JD0000461	29.9972019195557	0.140000	
JD0000047	33.625	0.140000	
JD0000172	22.1674480438232	0.140000	
JD0000134	25.5680961608887	0.140000	
JD0000159	25.6704788208008	0.140000	
JD0000430	26.0055980682373	0.140000	
JD0000711	34.722972869873	0.140000	
JD0000598	27.0396480560303	0.140000	
JD0000505	25.2499980926514	0.140000	
JD0000671	33.1079750061035	0.140000	
JD0000031	30.5	0.135000	
JD0000287	20.6249980926514	0.140000	
JD0000691	32.75	0.140000	
JD0000536	35.6051788330078	0.140000	
JD0000054	41.7301750183105	0.140000	
JD0000434	25.7301788330078	0.140000	
JD0000185	28.1800308227539	0.140000	
JD0000147	24.8318405151367	0.140000	
JD0000532	16.9433288574219	0.140000	
JD0000643	40.5711288452148	0.140000	
JD0000492	17.7444019317627	0.140000	
JD0000186	28.1380653381348	0.140000	
JD0000494	16.7886829376221	0.140000	
JD0000700	25.1413116455078	0.140000	
JD0000511	32.027027130127	0.140000	
JD0000477	16.9864845275879	0.140000	
JD0000036	31.9181575775146	0.140000	
JD0000601	41.1361923217773	0.140000	
JD0000048	36.0844612121582	0.140000	
JD0000366	22.5179557800293	0.140000	
JD0000229	50.711311340332	0.135000	
JD0000672	31.2444019317627	0.140000	
JD0000120	31.4864826202393	0.140000	
JD0000055	36.2311401367188	0.140000	
JD0000002	30.375	0.140000	
JD0000394	24.2626190185547	0.140000	
JD0000580	17.9932422637939	0.140000	
JD0000233	39.0655250549316	0.140000	
JD0000117	31.2301750183105	0.140000	
JD0000015	24.9999980926514	0.140000	
JD0000543	35.4864883422852	0.140000	
JD0000177	33.5965461730957	0.140000	
JD0000351	29.1735057830811	0.140000	
JD0000390	34.8069038391113	0.140000	
JD0000288	22.7985057830811	0.140000	
JD0000294	20.3320941925049	0.140000	
JD0000212	43.168155670166	0.135000	
JD0000694	33.5	0.140000	
JD0000453	34.581844329834	0.140000	
JD0000684	35.2068405151367	0.140000	
JD0000353	29.4836864471436	0.140000	
JD0000130	23.3125	0.140000	
JD0000340	16.7635135650635	0.140000	
JD0000241	24.2532577514648	0.140000	
JD0000372	27.9034481048584	0.140000	
JD0000702	28.625	0.140000	
JD0000145	25.0923595428467	0.140000	
JD0000251	15.1448240280151	0.140000	
JD0000413	29.9272651672363	0.140000	
JD0000432	22.7444019317627	0.140000	
JD0000466	22.8367767333984	0.140000	
JD0000193	42.6249961853027	0.140000	
JD0000146	24.3157825469971	0.140000	
JD0000306	20.1222019195557	0.140000	
JD0000175	30.085355758667	0.140000	
JD0000464	21.93190574646	0.140000	
JD0000568	29.1905288696289	0.140000	
JD0000429	29.3586750030518	0.140000	
JD0000040	34.6194000244141	0.140000	
JD0000285	28.7068424224854	0.140000	
JD0000540	33.499095916748	0.140000	
JD0000590	32.3836288452148	0.140000	
JD0000363	29.0083961486816	0.140000	
JD0000223	45.1361961364746	0.135000	
JD0000065	42.7472038269043	0.140000	
JD0000523	17.2229709625244	0.140000	
JD0000458	33.846549987793	0.140000	
JD0000668	24.0088787078857	0.140000	
JD0000728	33.3416595458984	0.140000	
JD0000265	16.7231540679932	0.140000	
JD0000578	17.8920211791992	0.140000	
JD0000446	32.096549987793	0.140000	
JD0000245	22.463565826416	0.140000	
JD0000563	39.6051712036133	0.140000	
JD0000592	31.2635173797607	0.140000	
JD0000034	32.3155326843262	0.140000	
JD0000529	19.3318424224854	0.140000	
JD0000025	29.6051750183105	0.140000	
JD0000565	31.9008827209473	0.140000	
JD0000435	26.0569019317627	0.140000	
JD0000534	34.497200012207	0.140000	
JD0000202	43.25	0.140000	
JD0000171	28.6007347106934	0.140000	
JD0000336	20.3129825592041	0.140000	
JD0000623	47.9265327453613	0.140000	
JD0000570	22.2364826202393	0.140000	
JD0000313	19.372200012207	0.140000	
JD0000331	20.1681575775146	0.140000	
JD0000443	28.3721961975098	0.140000	
JD0000183	33.8722038269043	0.140000	
JD0000262	15.6986951828003	0.140000	
JD0000501	24.2329788208008	0.140000	
JD0000023	30.8516693115234	0.140000	
JD0000073	34.5	0.140000	
JD0000049	38.9801750183105	0.140000	
JD0000201	42.7455291748047	0.140000	
JD0000335	19.0767250061035	0.140000	
JD0000368	27.3045825958252	0.140000	
JD0000069	43.288688659668	0.140000	
JD0000019	26.7926750183105	0.140000	
JD0000715	38.9034538269043	0.140000	
JD0000059	39	0.140000	
JD0000509	27.2525691986084	0.140000	
JD0000122	29.3934364318848	0.140000	
JD0000037	33.7931632995605	0.140000	
JD0000061	42.5386810302734	0.140000	
JD0000261	15.3750009536743	0.140000	
JD0000705	36.497200012207	0.140000	
JD0000707	36.1361961364746	0.140000	
JD0000110	40.7166633605957	0.140000	
JD0000140	29.9034519195557	0.140000	
JD0000605	43.3722038269043	0.140000	
JD0000630	46.9801712036133	0.140000	
JD0000021	25.2499980926514	0.140000	
JD0000300	16.903450012207	0.140000	
JD0000408	30.75	0.140000	
JD0000106	35.8638000488281	0.140000	
JD0000077	31.9176731109619	0.140000	
JD0000606	45.0226249694824	0.140000	
JD0000582	20.3175678253174	0.140000	
JD0000173	34.25	0.140000	
JD0000445	31.3579750061035	0.140000	
JD0000333	17	0.140000	
JD0000246	24.25	0.140000	
JD0000182	33.3551750183105	0.140000	
JD0000696	23.5991172790527	0.140000	
JD0000196	42.5	0.140000	
JD0000124	21.5	0.140000	
JD0000685	36.5	0.140000	
JD0000079	27.8013019561768	0.140000	
JD0000564	32.252799987793	0.140000	
JD0000421	34.8638038635254	0.140000	
JD0000157	31.2499980926514	0.140000	
JD0000060	37.1333961486816	0.140000	
JD0000378	28.1809577941895	0.140000	
JD0000141	24.621488571167	0.140000	
JD0000724	42.1333961486816	0.140000	
JD0000089	33.8180999755859	0.140000	
JD0000607	44.9181594848633	0.140000	
JD0000652	27.7583980560303	0.140000	
JD0000585	29.8274040222168	0.140000	
JD0000393	31.4319038391113	0.140000	
JD0000569	26.4715480804443	0.140000	
JD0000659	30.9136829376221	0.140000	
JD0000088	32.1051788330078	0.140000	
JD0000660	31.3069019317627	0.140000	
JD0000291	15.8777990341187	0.140000	
JD0000438	32.8638038635254	0.140000	
JD0000635	35.1515846252441	0.140000	
JD0000449	34.8694000244141	0.140000	
JD0000224	50.8269577026367	0.135000	
JD0000346	17	0.140000	
JD0000045	34.1182403564453	0.140000	
JD0000164	30.7364864349365	0.140000	
JD0000406	24.586051940918	0.140000	
JD0000204	43.7464828491211	0.140000	
JD0000312	20.7726211547852	0.140000	
JD0000614	43	0.140000	
JD0000107	28.4999980926514	0.140000	
JD0000144	31.777027130127	0.140000	
JD0000418	32.861930847168	0.140000	
JD0000242	19.9913711547852	0.140000	
JD0000102	27.9864826202393	0.140000	
JD0000675	27.0818424224854	0.140000	
JD0000155	27.1476230621338	0.140000	
JD0000538	33.0244941711426	0.140000	
JD0000316	23.5	0.140000	
JD0000502	23.7500019073486	0.140000	
JD0000187	30.9801731109619	0.140000	
JD0000076	30.8920249938965	0.140000	
JD0000194	42.5	0.140000	
JD0000617	45.4319038391113	0.140000	
JD0000237	29.403450012207	0.140000	
JD0000471	18.75	0.140000	
JD0000588	23.7886829376221	0.140000	
JD0000373	31.2957057952881	0.140000	
JD0000395	26.5000019073486	0.140000	
JD0000522	16.2886867523193	0.140000	
JD0000216	43.872200012207	0.135000	
JD0000326	33.862377166748	0.140000	
JD0000649	31.7698230743408	0.140000	
JD0000571	34.1870155334473	0.140000	
JD0000385	35.1961288452148	0.140000	
JD0000232	39.25	0.140000	
JD0000256	13.9999980926514	0.140000	
JD0000587	22.5476303100586	0.140000	
JD0000039	33.8369979858398	0.140000	
JD0000475	18.5585079193115	0.140000	
JD0000476	18.8694019317627	0.140000	
JD0000698	24.8679809570313	0.140000	
JD0000710	34.784049987793	0.140000	
JD0000714	35.9319000244141	0.140000	
JD0000500	24.5	0.140000	
JD0000267	17.0135135650635	0.140000	
JD0000727	44.472972869873	0.140000	
JD0000123	32.7301788330078	0.140000	
JD0000255	14.9155416488647	0.140000	
JD0000409	29.7499980926514	0.140000	
JD0000030	25.7499980926514	0.140000	
JD0000679	34.0055961608887	0.140000	
JD0000238	29	0.140000	
JD0000044	35.5680999755859	0.140000	
JD0000472	20.0683288574219	0.140000	
JD0000613	45.5627288818359	0.140000	
JD0000280	27.375	0.140000	
JD0000507	29.7635154724121	0.140000	
JD0000542	35.8750038146973	0.140000	
JD0000589	34.7583961486816	0.140000	
JD0000028	26.7555980682373	0.140000	
JD0000192	42.5	0.140000	
JD0000695	27.9319019317627	0.140000	
JD0000062	43.1819000244141	0.140000	
JD0000072	30.7931537628174	0.140000	
JD0000451	27.002799987793	0.140000	
JD0000371	30.0256519317627	0.140000	
JD0000042	39.1870193481445	0.140000	
JD0000228	51.75	0.135000	
JD0000016	26.9990348815918	0.140000	
JD0000527	27.7500019073486	0.140000	
JD0000247	16.5135154724121	0.140000	
JD0000230	45.375	0.135000	
JD0000524	23.7103538513184	0.140000	
JD0000697	24.0946464538574	0.140000	
JD0000610	41.0396499633789	0.140000	
JD0000359	28.9020252227783	0.140000	
JD0000038	32.2329788208008	0.140000	
JD0000496	17.0421962738037	0.140000	
JD0000302	16.7229709625244	0.140000	
JD0000278	17.6875	0.140000	
JD0000098	24.8085098266602	0.140000	
JD0000131	23.3208980560303	0.140000	
JD0000612	39.625	0.140000	
JD0000437	33.4181594848633	0.140000	
JD0000296	17.5004825592041	0.140000	
JD0000226	53.7229423522949	0.135000	
JD0000381	28.6709537506104	0.140000	
JD0000594	31.0000019073486	0.140000	
JD0000566	32.27587890625	0.140000	
JD0000322	30.2886867523193	0.140000	
JD0000619	43.403450012207	0.140000	
JD0000250	15.081844329834	0.140000	
JD0000337	21.4729709625244	0.140000	
JD0000450	26.4999980926514	0.140000	
JD0000092	35.2500038146973	0.140000	
JD0000112	31.3491153717041	0.140000	
JD0000354	29.9319019317627	0.140000	
JD0000726	42.1791038513184	0.140000	
JD0000305	19.7868499755859	0.140000	
JD0000709	36.1448249816895	0.140000	
JD0000148	25.1221981048584	0.140000	
JD0000136	23.0270309448242	0.140000	
JD0000057	32.1905326843262	0.140000	
JD0000552	39.4773750305176	0.140000	
JD0000600	36.9678077697754	0.140000	
JD0000468	20.4433269500732	0.140000	
JD0000387	35	0.140000	
JD0000252	18.0718402862549	0.140000	
JD0000070	42.7364883422852	0.140000	
JD0000545	39.9053192138672	0.140000	
JD0000556	36.9319000244141	0.140000	
JD0000314	18.1163730621338	0.140000	
JD0000647	30.8493461608887	0.140000	
JD0000425	34.5	0.140000	
JD0000320	22.7635154724121	0.140000	
JD0000481	16.7301769256592	0.140000	
JD0000433	23.6392269134521	0.140000	
JD0000101	27.831844329834	0.140000	
JD0000581	17.7861366271973	0.140000	
JD0000189	36.9095115661621	0.140000	
JD0000269	17.2851734161377	0.140000	
JD0000633	37.6930961608887	0.140000	
JD0000020	24.9626922607422	0.140000	
JD0000179	31.4864845275879	0.140000	
JD0000310	19.1842422485352	0.140000	
JD0000263	15.2042942047119	0.140000	
JD0000567	29.7957057952881	0.140000	
JD0000143	27.6361961364746	0.140000	
JD0000455	35.1114845275879	0.140000	
JD0000520	19.204044342041	0.140000	
JD0000188	27.5991172790527	0.140000	
JD0000111	33.7691078186035	0.140000	
JD0000383	33.5000038146973	0.140000	
JD0000712	35.528450012207	0.140000	
JD0000270	18.625	0.140000	
JD0000415	30.25	0.140000	
JD0000358	27.6763038635254	0.140000	
JD0000560	36.4430961608887	0.140000	

[PIPES]
VA0000004	UPVA0000004	DWVA0000004	2	315	130	0	Open
VA0000005	UPVA0000005	DWVA0000005	2	315	130	0	Open
VA0000001	UPVA0000001	DWVA0000001	2	250	130	0	Open
VA0000006	UPVA0000006	DWVA0000006	2	600	130	0	Open
VA0000007	UPVA0000007	DWVA0000007	2	800	130	0	Open
VA0000003	UPVA0000003	DWVA0000003	2	160	130	0	Open
VA0000008	UPVA0000008	DWVA0000008	2	315	130	0	Open
VA0000009	UPVA0000009	DWVA0000009	2	200	130	0	Open
VA0000002	UPVA0000002	DWVA0000002	2	315	130	0	Open
GD0000758	JD0000088	DWVA0000005	175.653851634634	315	130	0	Open
GD0000750	JD0000010	DWVA0000007	579.99999635688	800	130	0	Open
GD0000748	JD0000003	DWVA0000001	525.928535398251	250	130	0	Open
GD0000760	JD0000191	DWVA0000002	248.773768757407	315	130	0	Open
GD0000752	JD0000037	DWVA0000003	859.248507111194	160	130	0	Open
GD0000764	JD0000478	DWVA0000009	134.492509439635	200	130	0	Open
GD0000756	JD0000091	DWVA0000008	350.400951053601	315	130	0	Open
GD0000762	JD0000328	DWVA0000006	129.500768062024	600	130	0	Open
GD0000754	JD0000170	DWVA0000004	391.602649494619	315	130	0	Open
GD0000759	UPVA0000005	JD0000098	155.214803962222	315	130	0	Open
GD0000753	UPVA0000003	JD0000036	626.939402482094	160	130	0	Open
GD0000749	UPVA0000001	JD0000004	525.284905014986	250	130	0	Open
GD0000761	UPVA0000002	JD0000192	221.45698129941	315	130	0	Open
GD0000755	UPVA0000004	JD0000171	396.905147345673	315	130	0	Open
GD0000765	UPVA0000009	JD0000480	126.72766930163	200	130	0	Open
GD0000751	UPVA0000007	JD0000039	501.72220393607	800	130	0	Open
GD0000757	UPVA0000008	JD0000133	323.529622425514	315	130	0	Open
GD0000763	UPVA0000006	JD0000361	171.051341420481	600	130	0	Open
GD0000114	JD0000113	JD0000123	1712.01222534732	200	130	0	Open
GD0000093	JD0000097	JD0000099	347.680496400898	160	130	0	Open
GD0000254	JD0000262	JD0000263	103.470022134998	315	130	0	Open
GD0000052	JD0000063	JD0000064	126.269816687364	110	130	0	Open
GD0000652	JD0000645	JD0000355	362.046672474058	600	130	0	Open
GD0000135	JD0000142	JD0000143	111.540472907905	200	130	0	Open
GD0000153	JD0000160	JD0000161	32.5600808266423	110	130	0	Open
GD0000454	JD0000453	JD0000383	38.8777691659343	150	130	0	Open
GD0000186	JD0000192	JD0000197	150.444111107251	160	130	0	Open
GD0000313	JD0000340	JD0000341	62.2680842402515	200	130	0	Open
GD0000109	JD0000114	JD0000115	29.3681796644648	200	130	0	Open
GD0000157	JD0000163	JD0000162	106.609888360632	800	130	0	Open
GD0000578	JD0000601	JD0000600	124.620406495995	110	130	0	Open
GD0000506	JD0000505	JD0000506	26.0602342953474	110	130	0	Open
GD0000273	JD0000286	JD0000287	211.48582669568	110	130	0	Open
GD0000693	JD0000652	JD0000653	19.0277301194797	150	130	0	Open
GD0000245	JD0000256	JD0000255	163.173721949845	315	130	0	Open
GD0000180	JD0000185	JD0000186	22.6149950896131	200	130	0	Open
GD0000306	JD0000324	JD0000325	116.930398257661	110	130	0	Open
GD0000734	JD0000686	JD0000687	238.699971469403	160	130	0	Open
GD0000708	JD0000695	JD0000698	124.453249484583	110	130	0	Open
GD0000032	JD0000035	JD0000034	325.635650181761	160	130	0	Open
GD0000539	JD0000537	JD0000539	103.939687593416	150	130	0	Open
GD0000218	JD0000232	JD0000196	527.727116192773	150	130	0	Open
GD0000038	JD0000047	JD0000048	211.277117587099	110	130	0	Open
GD0000447	JD0000448	JD0000447	32.7903177911299	200	130	0	Open
GD0000252	JD0000260	JD0000261	168.623004894344	315	130	0	Open
GD0000590	JD0000569	JD0000570	216.224484089648	160	130	0	Open