[TITLES]
Scenario: Base
Date:2020-11-30 17:33:36
[TANKS]
TK0000004	30	30	20	50	100		
TK0000003	30	30	20	50	100		
TK0000002	30	30	20	50	100		
TK0000001	30	30	20	50	100		

[PATTERNS]
p1	0.2 0.2 0.2 0.2 0.5 0.8 .2 1.4 1.4 1 1 1.2 1 1 0.5 0.5 1 1.2 1.4 1.4 1.4 1 1 0.8
p2	0.2 0.2 0.2 0.2 0.5 0.5 0.8 1.2 1 1 1.5 1.6 1.2 1.3 0.8 0.8 0.8 1 1 1 1 1.1 1.2 0.2

[JUNCTIONS]
DWVA0000001	28.600735	0.20	p1
DWVA0000009	26.554585	0.20	p1
DWVA0000003	17.653450	0.20	p1
DWVA0000002	31.945414	0.20	p1
DWVA0000007	42.500000	0.20	p1
DWVA0000008	24.808510	0.20	p1
DWVA0000004	33.836998	0.20	p1
DWVA0000005	31.918158	0.20	p1
DWVA0000006	24.558771	0.20	p1
UPVA0000001	23.642025	0.20	p1
UPVA0000003	17.153452	0.20	p1
UPVA0000002	35.558773	0.20	p1
UPVA0000007	38.540108	0.20	p1
UPVA0000009	32.144825	0.20	p1
UPVA0000008	32.105179	0.20	p1
UPVA0000005	33.793163	0.20	p1
UPVA0000004	30.309700	0.20	p1
UPVA0000006	29.543156	0.20	p1
JD0000045	34.118240	0.20	p1
JD0000178	33.250000	0.20	p1
JD0000177	30.085356	0.20	p1
JD0000176	33.754635	0.20	p1
JD0000175	34.250000	0.20	p1
JD0000174	22.167448	0.20	p1
JD0000173	28.600735	0.20	p1
JD0000172	23.642025	0.20	p1
JD0000171	26.750002	0.20	p1
JD0000156	31.855173	0.20	p1
JD0000149	24.831841	0.20	p1
JD0000148	24.315783	0.20	p1
JD0000137	23.193100	0.20	p1
JD0000136	25.568096	0.20	p1
JD0000135	26.554585	0.20	p1
JD0000134	22.668159	0.20	p1
JD0000133	23.320898	0.20	p1
JD0000132	23.312500	0.20	p1
JD0000730	33.341660	0.20	p1
JD0000729	44.472973	0.20	p1
JD0000728	42.179104	0.20	p1
JD0000727	38.611485	0.20	p1
JD0000726	42.133396	0.20	p1
JD0000725	37.542446	0.20	p1
JD0000724	37.263515	0.20	p1
JD0000723	31.185396	0.20	p1
JD0000722	35.664646	0.20	p1
JD0000721	37.245365	0.20	p1
JD0000720	37.198700	0.20	p1
JD0000719	37.619400	0.20	p1
JD0000718	39.216660	0.20	p1
JD0000717	38.903454	0.20	p1
JD0000716	35.931900	0.20	p1
JD0000715	36.144825	0.20	p1
JD0000714	35.528450	0.20	p1
JD0000713	34.722973	0.20	p1
JD0000712	34.784050	0.20	p1
JD0000711	36.144825	0.20	p1
JD0000710	36.289650	0.20	p1
JD0000709	36.136196	0.20	p1
JD0000708	36.951725	0.20	p1
JD0000707	36.497200	0.20	p1
JD0000706	35.065300	0.20	p1
JD0000705	28.752798	0.20	p1
JD0000704	28.625000	0.20	p1
JD0000703	26.013514	0.20	p1
JD0000702	25.141312	0.20	p1
JD0000701	25.347973	0.20	p1
JD0000700	24.867981	0.20	p1
JD0000699	24.094646	0.20	p1
JD0000698	23.599117	0.20	p1
JD0000697	27.931902	0.20	p1
JD0000696	33.500000	0.20	p1
JD0000695	36.355175	0.20	p1
JD0000694	31.036848	0.20	p1
JD0000693	32.750000	0.20	p1
JD0000692	36.964828	0.20	p1
JD0000691	39.250000	0.20	p1
JD0000690	41.750000	0.20	p1
JD0000689	42.295712	0.20	p1
JD0000688	36.999996	0.20	p1
JD0000687	36.500000	0.20	p1
JD0000686	35.206841	0.20	p1
JD0000685	34.625000	0.20	p1
JD0000684	34.625000	0.20	p1
JD0000683	33.768188	0.20	p1
JD0000682	33.756760	0.20	p1
JD0000681	34.005596	0.20	p1
JD0000680	34.005596	0.20	p1
JD0000679	32.585358	0.20	p1
JD0000678	29.997198	0.20	p1
JD0000677	27.081842	0.20	p1
JD0000676	32.857975	0.20	p1
JD0000675	35.568100	0.20	p1
JD0000674	31.244402	0.20	p1
JD0000673	33.107975	0.20	p1
JD0000672	33.877323	0.20	p1
JD0000671	32.612377	0.20	p1
JD0000670	24.008879	0.20	p1
JD0000669	23.601915	0.20	p1
JD0000668	29.745365	0.20	p1
JD0000667	31.250000	0.20	p1
JD0000666	33.045704	0.20	p1
JD0000665	32.670452	0.20	p1
JD0000664	32.099575	0.20	p1
JD0000663	30.322735	0.20	p1
JD0000662	31.306902	0.20	p1
JD0000661	30.913683	0.20	p1
JD0000660	26.874998	0.20	p1
JD0000659	27.377802	0.20	p1
JD0000658	26.272621	0.20	p1
JD0000657	25.647623	0.20	p1
JD0000656	27.013514	0.20	p1
JD0000655	27.513998	0.20	p1
JD0000654	27.758398	0.20	p1
JD0000653	29.999998	0.20	p1
JD0000652	31.347975	0.20	p1
JD0000651	31.769823	0.20	p1
JD0000650	33.433323	0.20	p1
JD0000649	30.849346	0.20	p1
JD0000648	31.249998	0.20	p1
JD0000647	30.678164	0.20	p1
JD0000646	43.000000	0.20	p1
JD0000645	40.571129	0.20	p1
JD0000644	29.755600	0.20	p1
JD0000643	22.390831	0.20	p1
JD0000642	23.710356	0.20	p1
JD0000641	24.480175	0.20	p1
JD0000640	29.012621	0.20	p1
JD0000639	31.544811	0.20	p1
JD0000638	32.500004	0.20	p1
JD0000637	35.151585	0.20	p1
JD0000636	35.875000	0.20	p1
JD0000635	37.693096	0.20	p1
JD0000634	38.610779	0.20	p1
JD0000633	39.596554	0.20	p1
JD0000632	46.980171	0.20	p1
JD0000631	45.578331	0.20	p1
JD0000630	44.722969	0.20	p1
JD0000629	42.722973	0.20	p1
JD0000628	42.472977	0.20	p1
JD0000627	41.593746	0.20	p1
JD0000626	49.048508	0.20	p1
JD0000625	47.926533	0.20	p1
JD0000624	44.448700	0.20	p1
JD0000623	43.463844	0.20	p1
JD0000622	44.486485	0.20	p1
JD0000621	43.403450	0.20	p1
JD0000620	41.286846	0.20	p1
JD0000619	45.431904	0.20	p1
JD0000618	42.500004	0.20	p1
JD0000617	41.872684	0.20	p1
JD0000616	43.000000	0.20	p1
JD0000615	45.562729	0.20	p1
JD0000614	39.625000	0.20	p1
JD0000613	47.043159	0.20	p1
JD0000612	41.039650	0.20	p1
JD0000611	40.206841	0.20	p1
JD0000610	41.539646	0.20	p1
JD0000609	44.918159	0.20	p1
JD0000608	45.022625	0.20	p1
JD0000607	43.372204	0.20	p1
JD0000606	43.736481	0.20	p1
JD0000605	42.116375	0.20	p1
JD0000604	41.513512	0.20	p1
JD0000603	41.136192	0.20	p1
JD0000602	36.967808	0.20	p1
JD0000601	36.480179	0.20	p1
JD0000600	27.039648	0.20	p1
JD0000599	29.288687	0.20	p1
JD0000598	29.250002	0.20	p1
JD0000597	29.752798	0.20	p1
JD0000596	31.000002	0.20	p1
JD0000731	30.000000	0.20	p1
JD0000595	32.854927	0.20	p1
JD0000594	31.263517	0.20	p1
JD0000593	33.429104	0.20	p1
JD0000592	32.383629	0.20	p1
JD0000591	34.758396	0.20	p1
JD0000590	23.788683	0.20	p1
JD0000589	22.547630	0.20	p1
JD0000588	20.418156	0.20	p1
JD0000587	29.827404	0.20	p1
JD0000586	25.543156	0.20	p1
JD0000585	23.985775	0.20	p1
JD0000584	20.317568	0.20	p1
JD0000583	17.786137	0.20	p1
JD0000582	17.993242	0.20	p1
JD0000581	20.355175	0.20	p1
JD0000580	17.892021	0.20	p1
JD0000579	20.463150	0.20	p1
JD0000578	21.499998	0.20	p1
JD0000577	41.263515	0.20	p1
JD0000576	34.505600	0.20	p1
JD0000575	38.883400	0.20	p1
JD0000574	34.370525	0.20	p1
JD0000573	34.187016	0.20	p1
JD0000572	22.236483	0.20	p1
JD0000571	26.471548	0.20	p1
JD0000570	29.190529	0.20	p1
JD0000569	29.795706	0.20	p1
JD0000568	32.275879	0.20	p1
JD0000567	31.900883	0.20	p1
JD0000566	32.252800	0.20	p1
JD0000565	39.605171	0.20	p1
JD0000564	37.875000	0.20	p1
JD0000563	37.206169	0.20	p1
JD0000562	36.443096	0.20	p1
JD0000561	36.027027	0.20	p1
JD0000560	35.818096	0.20	p1
JD0000559	35.527027	0.20	p1
JD0000558	36.931900	0.20	p1
JD0000557	37.715721	0.20	p1
JD0000556	39.755596	0.20	p1
JD0000555	40.232975	0.20	p1
JD0000554	39.477375	0.20	p1
JD0000553	40.125004	0.20	p1
JD0000552	40.991604	0.20	p1
JD0000551	42.171669	0.20	p1
JD0000550	41.071125	0.20	p1
JD0000549	38.293156	0.20	p1
JD0000548	37.502796	0.20	p1
JD0000547	39.905319	0.20	p1
JD0000546	35.804585	0.20	p1
JD0000545	35.486488	0.20	p1
JD0000544	35.875004	0.20	p1
JD0000543	36.375000	0.20	p1
JD0000542	33.499096	0.20	p1
JD0000541	34.318096	0.20	p1
JD0000540	33.024494	0.20	p1
JD0000539	33.417446	0.20	p1
JD0000538	35.605179	0.20	p1
JD0000537	33.668159	0.20	p1
JD0000536	34.497200	0.20	p1
JD0000535	16.755598	0.20	p1
JD0000534	16.943329	0.20	p1
JD0000533	16.068327	0.20	p1
JD0000532	25.801304	0.20	p1
JD0000531	19.331842	0.20	p1
JD0000530	24.222973	0.20	p1
JD0000529	27.750002	0.20	p1
JD0000528	30.539841	0.20	p1
JD0000527	28.473867	0.20	p1
JD0000526	23.710354	0.20	p1
JD0000525	17.222971	0.20	p1
JD0000524	16.288687	0.20	p1
JD0000523	19.309702	0.20	p1
JD0000522	19.204044	0.20	p1
JD0000521	21.168158	0.20	p1
JD0000520	21.000000	0.20	p1
JD0000519	24.343979	0.20	p1
JD0000518	27.642252	0.20	p1
JD0000517	36.499996	0.20	p1
JD0000516	34.184696	0.20	p1
JD0000515	33.636200	0.20	p1
JD0000514	30.492981	0.20	p1
JD0000513	32.027027	0.20	p1
JD0000512	27.568096	0.20	p1
JD0000511	27.252569	0.20	p1
JD0000510	30.309471	0.20	p1
JD0000509	29.763515	0.20	p1
JD0000508	25.750002	0.20	p1
JD0000507	25.249998	0.20	p1
JD0000506	24.374998	0.20	p1
JD0000505	24.000000	0.20	p1
JD0000504	23.750002	0.20	p1
JD0000503	24.232979	0.20	p1
JD0000502	24.500000	0.20	p1
JD0000501	24.480177	0.20	p1
JD0000500	15.750001	0.20	p1
JD0000499	16.526134	0.20	p1
JD0000498	17.042196	0.20	p1
JD0000497	16.769821	0.20	p1
JD0000496	16.788683	0.20	p1
JD0000495	16.013514	0.20	p1
JD0000494	17.744402	0.20	p1
JD0000493	17.747202	0.20	p1
JD0000492	17.013514	0.20	p1
JD0000491	16.228306	0.20	p1
JD0000490	18.046404	0.20	p1
JD0000489	18.752800	0.20	p1
JD0000488	18.446840	0.20	p1
JD0000487	16.672348	0.20	p1
JD0000486	15.237185	0.20	p1
JD0000485	15.644822	0.20	p1
JD0000484	16.900656	0.20	p1
JD0000483	16.730177	0.20	p1
JD0000482	17.653450	0.20	p1
JD0000481	17.122200	0.20	p1
JD0000480	17.153452	0.20	p1
JD0000479	16.986485	0.20	p1
JD0000478	18.869402	0.20	p1
JD0000477	18.558508	0.20	p1
JD0000476	19.213154	0.20	p1
JD0000475	20.706841	0.20	p1
JD0000474	20.068329	0.20	p1
JD0000473	18.750000	0.20	p1
JD0000472	19.831612	0.20	p1
JD0000471	23.377798	0.20	p1
JD0000470	20.443327	0.20	p1
JD0000469	22.486486	0.20	p1
JD0000468	22.836777	0.20	p1
JD0000467	23.354214	0.20	p1
JD0000466	21.931906	0.20	p1
JD0000465	22.312498	0.20	p1
JD0000464	29.907892	0.20	p1
JD0000463	29.997202	0.20	p1
JD0000462	31.903452	0.20	p1
JD0000461	36.668156	0.20	p1
JD0000460	33.846550	0.20	p1
JD0000459	34.971550	0.20	p1
JD0000458	35.960350	0.20	p1
JD0000457	35.111485	0.20	p1
JD0000456	34.351665	0.20	p1
JD0000455	34.581844	0.20	p1
JD0000454	35.611485	0.20	p1
JD0000453	27.002800	0.20	p1
JD0000452	26.499998	0.20	p1
JD0000451	34.869400	0.20	p1
JD0000450	32.638515	0.20	p1
JD0000449	33.346550	0.20	p1
JD0000448	32.096550	0.20	p1
JD0000447	31.357975	0.20	p1
JD0000446	31.111931	0.20	p1
JD0000445	28.372196	0.20	p1
JD0000444	29.875002	0.20	p1
JD0000443	28.456844	0.20	p1
JD0000442	26.894821	0.20	p1
JD0000441	31.716663	0.20	p1
JD0000440	32.863804	0.20	p1
JD0000439	33.418159	0.20	p1
JD0000438	32.443100	0.20	p1
JD0000437	26.056902	0.20	p1
JD0000436	25.730179	0.20	p1
JD0000435	23.639227	0.20	p1
JD0000434	22.744402	0.20	p1
JD0000433	25.340954	0.20	p1
JD0000432	26.005598	0.20	p1
JD0000431	29.358675	0.20	p1
JD0000430	30.125000	0.20	p1
JD0000429	31.184469	0.20	p1
JD0000428	34.788681	0.20	p1
JD0000427	34.500000	0.20	p1
JD0000426	34.407188	0.20	p1
JD0000425	33.710800	0.20	p1
JD0000424	34.940529	0.20	p1
JD0000423	34.863804	0.20	p1
JD0000422	36.835354	0.20	p1
JD0000421	36.788948	0.20	p1
JD0000420	32.861931	0.20	p1
JD0000419	31.499998	0.20	p1
JD0000418	30.704296	0.20	p1
JD0000417	30.250000	0.20	p1
JD0000416	29.972975	0.20	p1
JD0000415	29.927265	0.20	p1
JD0000414	30.056902	0.20	p1
JD0000413	30.647625	0.20	p1
JD0000412	30.556902	0.20	p1
JD0000411	29.749998	0.20	p1
JD0000410	30.750000	0.20	p1
JD0000409	26.042908	0.20	p1
JD0000408	24.586052	0.20	p1
JD0000407	26.440298	0.20	p1
JD0000406	33.051533	0.20	p1
JD0000405	29.750000	0.20	p1
JD0000404	31.059704	0.20	p1
JD0000403	31.023335	0.20	p1
JD0000402	32.293159	0.20	p1
JD0000401	32.085350	0.20	p1
JD0000400	33.508858	0.20	p1
JD0000399	18.952368	0.20	p1
JD0000398	23.453598	0.20	p1
JD0000397	26.500002	0.20	p1
JD0000396	24.262619	0.20	p1
JD0000395	31.431904	0.20	p1
JD0000394	32.039646	0.20	p1
JD0000393	34.000000	0.20	p1
JD0000392	34.806904	0.20	p1
JD0000391	35.000000	0.20	p1
JD0000390	34.644821	0.20	p1
JD0000389	35.000000	0.20	p1
JD0000388	34.961315	0.20	p1
JD0000387	35.196129	0.20	p1
JD0000386	35.440529	0.20	p1
JD0000385	33.500004	0.20	p1
JD0000384	29.372200	0.20	p1
JD0000383	28.670954	0.20	p1
JD0000382	28.872200	0.20	p1
JD0000381	28.361485	0.20	p1
JD0000380	28.180958	0.20	p1
JD0000379	28.789648	0.20	p1
JD0000378	28.043154	0.20	p1
JD0000377	29.375002	0.20	p1
JD0000376	27.709890	0.20	p1
JD0000375	31.295706	0.20	p1
JD0000374	27.903448	0.20	p1
JD0000373	30.025652	0.20	p1
JD0000372	29.573694	0.20	p1
JD0000371	28.972973	0.20	p1
JD0000370	27.304583	0.20	p1
JD0000369	21.383169	0.20	p1
JD0000368	22.517956	0.20	p1
JD0000367	29.431904	0.20	p1
JD0000366	29.008396	0.20	p1
JD0000365	29.008396	0.20	p1
JD0000364	30.638512	0.20	p1
JD0000363	31.945414	0.20	p1
JD0000362	22.250002	0.20	p1
JD0000361	28.902025	0.20	p1
JD0000360	27.676304	0.20	p1
JD0000359	27.611486	0.20	p1
JD0000358	31.382204	0.20	p1
JD0000357	31.124998	0.20	p1
JD0000356	29.931902	0.20	p1
JD0000355	29.483686	0.20	p1
JD0000354	29.363804	0.20	p1
JD0000353	29.173506	0.20	p1
JD0000352	27.596546	0.20	p1
JD0000351	27.874748	0.20	p1
JD0000350	26.051302	0.20	p1
JD0000349	26.096550	0.20	p1
JD0000348	17.000000	0.20	p1
JD0000347	18.875000	0.20	p1
JD0000346	16.293156	0.20	p1
JD0000345	16.556902	0.20	p1
JD0000344	16.668158	0.20	p1
JD0000343	17.403452	0.20	p1
JD0000342	16.763514	0.20	p1
JD0000341	22.686090	0.20	p1
JD0000340	27.250000	0.20	p1
JD0000339	21.472971	0.20	p1
JD0000338	20.312983	0.20	p1
JD0000337	19.076725	0.20	p1
JD0000336	17.763514	0.20	p1
JD0000335	17.000000	0.20	p1
JD0000334	21.418158	0.20	p1
JD0000333	20.168158	0.20	p1
JD0000332	17.750000	0.20	p1
JD0000331	35.500004	0.20	p1
JD0000330	35.558773	0.20	p1
JD0000329	33.836315	0.20	p1
JD0000328	33.862377	0.20	p1
JD0000327	32.832550	0.20	p1
JD0000326	27.894823	0.20	p1
JD0000325	29.117798	0.20	p1
JD0000324	30.288687	0.20	p1
JD0000323	30.494400	0.20	p1
JD0000322	22.763515	0.20	p1
JD0000321	27.482975	0.20	p1
JD0000320	24.964092	0.20	p1
JD0000319	24.499998	0.20	p1
JD0000318	23.500000	0.20	p1
JD0000317	21.403452	0.20	p1
JD0000316	18.116373	0.20	p1
JD0000315	19.372200	0.20	p1
JD0000314	20.772621	0.20	p1
JD0000313	20.539646	0.20	p1
JD0000312	19.184242	0.20	p1
JD0000311	19.184471	0.20	p1
JD0000310	19.264444	0.20	p1
JD0000309	19.496490	0.20	p1
JD0000308	20.122202	0.20	p1
JD0000307	19.786850	0.20	p1
JD0000306	16.636196	0.20	p1
JD0000305	16.513994	0.20	p1
JD0000304	16.722971	0.20	p1
JD0000303	18.581841	0.20	p1
JD0000302	16.903450	0.20	p1
JD0000301	16.706844	0.20	p1
JD0000300	16.125000	0.20	p1
JD0000299	16.000000	0.20	p1
JD0000298	17.500483	0.20	p1
JD0000297	15.649710	0.20	p1
JD0000296	20.332094	0.20	p1
JD0000295	20.027027	0.20	p1
JD0000294	16.788683	0.20	p1
JD0000293	15.877799	0.20	p1
JD0000292	19.190529	0.20	p1
JD0000291	18.750000	0.20	p1
JD0000290	22.798506	0.20	p1
JD0000289	20.624998	0.20	p1
JD0000288	26.249998	0.20	p1
JD0000287	28.706842	0.20	p1
JD0000286	18.763512	0.20	p1
JD0000285	27.335352	0.20	p1
JD0000284	18.543158	0.20	p1
JD0000283	18.638514	0.20	p1
JD0000282	27.375000	0.20	p1
JD0000281	17.125000	0.20	p1
JD0000280	17.687500	0.20	p1
JD0000279	18.736485	0.20	p1
JD0000278	19.486004	0.20	p1
JD0000277	19.792194	0.20	p1
JD0000276	18.943811	0.20	p1
JD0000275	15.187981	0.20	p1
JD0000274	17.661148	0.20	p1
JD0000273	17.711315	0.20	p1
JD0000272	18.625000	0.20	p1
JD0000271	17.285173	0.20	p1
JD0000270	17.144825	0.20	p1
JD0000269	17.013514	0.20	p1
JD0000268	20.960352	0.20	p1
JD0000267	16.723154	0.20	p1
JD0000266	15.517025	0.20	p1
JD0000265	15.204294	0.20	p1
JD0000264	15.698695	0.20	p1
JD0000263	15.375001	0.20	p1
JD0000262	15.000000	0.20	p1
JD0000261	14.937501	0.20	p1
JD0000260	13.999998	0.20	p1
JD0000259	13.999998	0.20	p1
JD0000258	13.999998	0.20	p1
JD0000257	14.915542	0.20	p1
JD0000256	15.368691	0.20	p1
JD0000255	15.961314	0.20	p1
JD0000254	18.071840	0.20	p1
JD0000253	15.144824	0.20	p1
JD0000252	15.081844	0.20	p1
JD0000251	15.624999	0.20	p1
JD0000250	15.013514	0.20	p1
JD0000249	16.513515	0.20	p1
JD0000248	24.250000	0.20	p1
JD0000247	22.463566	0.20	p1
JD0000246	21.004477	0.20	p1
JD0000245	20.323927	0.20	p1
JD0000244	19.991371	0.20	p1
JD0000243	24.253258	0.20	p1
JD0000242	22.674217	0.20	p1
JD0000241	22.263514	0.20	p1
JD0000240	29.000000	0.20	p1
JD0000239	29.403450	0.20	p1
JD0000238	29.956841	0.20	p1
JD0000237	32.480179	0.20	p1
JD0000236	38.295708	0.20	p1
JD0000235	39.065525	0.20	p1
JD0000234	39.250000	0.20	p1
JD0000233	40.431904	0.20	p1
JD0000232	45.375000	0.20	p1
JD0000231	50.711311	0.20	p1
JD0000230	51.750000	0.20	p1
JD0000229	53.747429	0.20	p1
JD0000228	53.722942	0.20	p1
JD0000227	52.250004	0.20	p1
JD0000226	50.826958	0.20	p1
JD0000225	45.136196	0.20	p1
JD0000224	42.627804	0.20	p1
JD0000223	42.148777	0.20	p1
JD0000222	28.724113	0.20	p1
JD0000221	45.272392	0.20	p1
JD0000220	46.499996	0.20	p1
JD0000219	48.043156	0.20	p1
JD0000218	43.872200	0.20	p1
JD0000217	43.249996	0.20	p1
JD0000216	43.553158	0.20	p1
JD0000215	43.825798	0.20	p1
JD0000214	43.168156	0.20	p1
JD0000213	38.222473	0.20	p1
JD0000212	40.293159	0.20	p1
JD0000211	41.618690	0.20	p1
JD0000210	42.184704	0.20	p1
JD0000209	44.647633	0.20	p1
JD0000208	42.013512	0.20	p1
JD0000207	42.950798	0.20	p1
JD0000206	43.746483	0.20	p1
JD0000205	44.722973	0.20	p1
JD0000204	43.250000	0.20	p1
JD0000203	42.745529	0.20	p1
JD0000202	42.206844	0.20	p1
JD0000201	42.668392	0.20	p1
JD0000200	42.497200	0.20	p1
JD0000199	44.038685	0.20	p1
JD0000198	42.500000	0.20	p1
JD0000197	42.013512	0.20	p1
JD0000196	42.500000	0.20	p1
JD0000195	42.624996	0.20	p1
JD0000194	42.500000	0.20	p1
JD0000193	38.540108	0.20	p1
JD0000192	36.966663	0.20	p1
JD0000191	36.909512	0.20	p1
JD0000190	27.599117	0.20	p1
JD0000189	30.980173	0.20	p1
JD0000188	28.138065	0.20	p1
JD0000187	28.180031	0.20	p1
JD0000186	28.267025	0.20	p1
JD0000185	33.872204	0.20	p1
JD0000184	33.355175	0.20	p1
JD0000183	30.207556	0.20	p1
JD0000182	31.477375	0.20	p1
JD0000181	31.486485	0.20	p1
JD0000180	34.948929	0.20	p1
JD0000179	33.596546	0.20	p1
JD0000170	25.624998	0.20	p1
JD0000169	27.693098	0.20	p1
JD0000168	27.690527	0.20	p1
JD0000167	27.500000	0.20	p1
JD0000166	30.736486	0.20	p1
JD0000165	30.795708	0.20	p1
JD0000164	30.383398	0.20	p1
JD0000163	21.999998	0.20	p1
JD0000162	22.054585	0.20	p1
JD0000161	25.670479	0.20	p1
JD0000160	29.596546	0.20	p1
JD0000159	31.249998	0.20	p1
JD0000158	24.710352	0.20	p1
JD0000157	27.147623	0.20	p1
JD0000155	30.721550	0.20	p1
JD0000154	27.418158	0.20	p1
JD0000153	26.750000	0.20	p1
JD0000152	26.370525	0.20	p1
JD0000151	24.986483	0.20	p1
JD0000150	25.122198	0.20	p1
JD0000147	25.092360	0.20	p1
JD0000146	31.777027	0.20	p1
JD0000145	27.636196	0.20	p1
JD0000144	25.125927	0.20	p1
JD0000143	24.621489	0.20	p1
JD0000142	29.903452	0.20	p1
JD0000141	32.210354	0.20	p1
JD0000140	32.125000	0.20	p1
JD0000139	23.168158	0.20	p1
JD0000138	23.027031	0.20	p1
JD0000131	23.568096	0.20	p1
JD0000130	24.460354	0.20	p1
JD0000129	25.221552	0.20	p1
JD0000128	17.750000	0.20	p1
JD0000127	30.250000	0.20	p1
JD0000126	21.500000	0.20	p1
JD0000125	32.730179	0.20	p1
JD0000124	29.393436	0.20	p1
JD0000123	25.020720	0.20	p1
JD0000122	31.486483	0.20	p1
JD0000121	31.747198	0.20	p1
JD0000120	29.355179	0.20	p1
JD0000119	31.230175	0.20	p1
JD0000118	31.928871	0.20	p1
JD0000117	40.770500	0.20	p1
JD0000116	41.249996	0.20	p1
JD0000115	29.649708	0.20	p1
JD0000114	31.349115	0.20	p1
JD0000113	33.769108	0.20	p1
JD0000112	40.716663	0.20	p1
JD0000111	34.624996	0.20	p1
JD0000110	33.250004	0.20	p1
JD0000109	28.499998	0.20	p1
JD0000108	35.863800	0.20	p1
JD0000107	38.471550	0.20	p1
JD0000106	32.747200	0.20	p1
JD0000105	31.193096	0.20	p1
JD0000104	27.986483	0.20	p1
JD0000103	27.831844	0.20	p1
JD0000102	27.500002	0.20	p1
JD0000101	27.454296	0.20	p1
JD0000100	24.808510	0.20	p1
JD0000099	31.815527	0.20	p1
JD0000098	39.908337	0.20	p1
JD0000097	39.000000	0.20	p1
JD0000096	37.763264	0.20	p1
JD0000095	36.494400	0.20	p1
JD0000094	35.250004	0.20	p1
JD0000093	32.144825	0.20	p1
JD0000092	32.013515	0.20	p1
JD0000091	33.818100	0.20	p1
JD0000090	32.105179	0.20	p1
JD0000089	35.613804	0.20	p1
JD0000088	35.736485	0.20	p1
JD0000087	39.106819	0.20	p1
JD0000086	37.304585	0.20	p1
JD0000085	31.752798	0.20	p1
JD0000084	32.343750	0.20	p1
JD0000083	41.980175	0.20	p1
JD0000082	21.931902	0.20	p1
JD0000081	35.097969	0.20	p1
JD0000080	27.801302	0.20	p1
JD0000079	26.855177	0.20	p1
JD0000078	31.917673	0.20	p1
JD0000077	30.892025	0.20	p1
JD0000076	29.178427	0.20	p1
JD0000075	33.346550	0.20	p1
JD0000074	34.500000	0.20	p1
JD0000073	30.793154	0.20	p1
JD0000072	32.392025	0.20	p1
JD0000071	42.736488	0.20	p1
JD0000070	43.288689	0.20	p1
JD0000069	43.355175	0.20	p1
JD0000068	43.578152	0.20	p1
JD0000067	43.097969	0.20	p1
JD0000066	42.747204	0.20	p1
JD0000065	34.815296	0.20	p1
JD0000064	33.250000	0.20	p1
JD0000063	43.181900	0.20	p1
JD0000062	42.538681	0.20	p1
JD0000061	37.133396	0.20	p1
JD0000060	39.000000	0.20	p1
JD0000059	37.543156	0.20	p1
JD0000058	34.934700	0.20	p1
JD0000057	32.190533	0.20	p1
JD0000056	29.633396	0.20	p1
JD0000055	36.231140	0.20	p1
JD0000054	41.730175	0.20	p1
JD0000053	40.986488	0.20	p1
JD0000052	36.209457	0.20	p1
JD0000051	42.000000	0.20	p1
JD0000050	40.903450	0.20	p1
JD0000049	38.980175	0.20	p1
JD0000048	36.084461	0.20	p1
JD0000047	33.625000	0.20	p1
JD0000046	33.875008	0.20	p1
JD0000044	35.568100	0.20	p1
JD0000043	40.875004	0.20	p1
JD0000042	39.187019	0.20	p1
JD0000041	35.599113	0.20	p1
JD0000040	34.619400	0.20	p1
JD0000039	33.836998	0.20	p1
JD0000038	32.232979	0.20	p1
JD0000037	33.793163	0.20	p1
JD0000036	31.918158	0.20	p1
JD0000035	34.536850	0.20	p1
JD0000034	32.315533	0.20	p1
JD0000033	31.193096	0.20	p1
JD0000032	26.877796	0.20	p1
JD0000031	30.500000	0.20	p1
JD0000030	25.749998	0.20	p1
JD0000029	30.782192	0.20	p1
JD0000028	26.755598	0.20	p1
JD0000027	30.086313	0.20	p1
JD0000026	28.625004	0.20	p1
JD0000025	29.605175	0.20	p1
JD0000024	32.068096	0.20	p1
JD0000023	30.851669	0.20	p1
JD0000022	24.999998	0.20	p1
JD0000021	25.249998	0.20	p1
JD0000020	24.962692	0.20	p1
JD0000019	26.792675	0.20	p1
JD0000018	27.210352	0.20	p1
JD0000017	27.579758	0.20	p1
JD0000016	26.999035	0.20	p1
JD0000015	24.999998	0.20	p1
JD0000014	24.121489	0.20	p1
JD0000013	24.161848	0.20	p1
JD0000012	24.168159	0.20	p1
JD0000011	24.250000	0.20	p1
JD0000010	30.309700	0.20	p1
JD0000009	18.818098	0.20	p1
JD0000008	18.288681	0.20	p1
JD0000007	17.631310	0.20	p1
JD0000006	17.855177	0.20	p1
JD0000005	23.999998	0.20	p1
JD0000004	24.558771	0.20	p1
JD0000003	29.543156	0.20	p1
JD0000002	30.375000	0.20	p1
JD0000001	30.898563	0.20	p1

[PIPES]
VA0000001	UPVA0000001	DWVA0000001	2	315.000000	130	0	Open
VA0000009	UPVA0000009	DWVA0000009	2	315.000000	130	0	Open
VA0000003	UPVA0000003	DWVA0000003	2	200.000000	130	0	Open
VA0000002	UPVA0000002	DWVA0000002	2	600.000000	130	0	Open
VA0000007	UPVA0000007	DWVA0000007	2	315.000000	130	0	Open
VA0000008	UPVA0000008	DWVA0000008	2	315.000000	130	0	Open
VA0000004	UPVA0000004	DWVA0000004	2	800.000000	130	0	Open
VA0000005	UPVA0000005	DWVA0000005	2	160.000000	130	0	Open
VA0000006	UPVA0000006	DWVA0000006	2	250.000000	130	0	Open
GD0000762	JD0000330	DWVA0000002	129.500768062024	600	130	0	Open
GD0000760	JD0000193	DWVA0000007	248.773768757407	315	130	0	Open
GD0000754	JD0000172	DWVA0000001	391.602649494619	315	130	0	Open
GD0000758	JD0000090	DWVA0000008	175.653851634634	315	130	0	Open
GD0000752	JD0000037	DWVA0000005	859.248507111194	160	130	0	Open
GD0000748	JD0000003	DWVA0000006	525.928535398251	250	130	0	Open
GD0000764	JD0000480	DWVA0000003	134.492509439635	200	130	0	Open
GD0000750	JD0000010	DWVA0000004	579.99999635688	800	130	0	Open
GD0000756	JD0000093	DWVA0000009	350.400951053601	315	130	0	Open
GD0000765	UPVA0000003	JD0000482	126.72766930163	200	130	0	Open
GD0000763	UPVA0000002	JD0000363	171.051341420481	600	130	0	Open
GD0000761	UPVA0000007	JD0000194	221.45698129941	315	130	0	Open
GD0000755	UPVA0000001	JD0000173	396.905147345673	315	130	0	Open
GD0000757	UPVA0000009	JD0000135	323.529622425514	315	130	0	Open
GD0000759	UPVA0000008	JD0000100	155.214803962222	315	130	0	Open
GD0000753	UPVA0000005	JD0000036	626.939402482094	160	130	0	Open
GD0000749	UPVA0000006	JD0000004	525.284905014986	250	130	0	Open
GD0000751	UPVA0000004	JD0000039	501.72220393607	800	130	0	Open
GD0000492	JD0000494	JD0000495	144.216251581305	110	130	0	Open
GD0000489	JD0000484	JD0000485	131.17400484628	110	130	0	Open
GD0000487	JD0000483	JD0000484	68.1394043942681	110	130	0	Open
GD0000002	JD0000002	JD0000003	228.836331689393	250	130	0	Open
GD0000037	JD0000040	JD0000046	48.5214169629959	110	130	0	Open
GD0000042	JD0000046	JD0000047	15.2188257873171	110	130	0	Open
GD0000746	JD0000731	JD0000010	915.027056309575	800	130	0	Open
GD0000497	JD0000499	JD0000500	70.2267944599284	110	130	0	Open
GD0000496	JD0000498	JD0000499	15.5456329392209	110	130	0	Open
GD0000495	JD0000497	JD0000498	73.0913119752706	110	130	0	Open
GD0000501	JD0000491	JD0000490	215.218008098983	110	130	0	Open
GD0000500	JD0000490	JD0000489	34.3744279633855	110	130	0	Open
GD0000494	JD0000496	JD0000497	103.594030947149	110	130	0	Open
GD0000493	JD0000495	JD0000496	94.5321710987173	110	130	0	Open
GD0000499	JD0000492	JD0000491	150.394810531452	110	130	0	Open
GD0000488	JD0000485	JD0000486	75.7810528799621	110	130	0	Open
GD0000490	JD0000481	JD0000492	29.6367468217415	110	130	0	Open
GD0000482	JD0000482	JD0000481	42.8063690315599	110	130	0	Open
GD0000491	JD0000493	JD0000494	15.2680200230525	110	130	0	Open
GD0000498	JD0000492	JD0000493	61.7821077858394	110	130	0	Open
GD0000483	JD0000481	JD0000483	173.374153747738	110	130	0	Open
GD0000486	JD0000482	JD0000487	63.6800854283208	110	130	0	Open
GD0000484	JD0000483	JD0000488	274.893063054361	110	130	0	Open
GD0000607	JD0000585	JD0000586	37.402525166172	110	130	0	Open
GD0000608	JD0000586	JD0000587	101.101398043856	110	130	0	Open
GD0000606	JD0000584	JD0000585	85.9438545169161	110	130	0	Open
GD0000604	JD0000581	JD0000583	158.828650334839	110	130	0	Open
GD0000529	JD0000534	JD0000535	144.101215432729	110	130	0	Open
GD0000605	JD0000583	JD0000584	45.4912030171096	110	130	0	Open
GD0000612	JD0000581	JD0000582	126.105209001979	110	130	0	Open
GD0000480	JD0000478	JD0000479	107.921514768002	200	130	0	Open
GD0000481	JD0000479	JD0000480	23.8482801031234	200	130	0	Open
GD0000611	JD0000579	JD0000580	122.141321399445	110	130	0	Open
GD0000615	JD0000599	JD0000600	152.205731768735	110	130	0	Open
GD0000528	JD0000533	JD0000534	31.2843402356083	110	130	0	Open
GD0000603	JD0000588	JD0000581	29.9237390134273	110	130	0	Open
GD0000527	JD0000532	JD0000533	197.336866478337	110	130	0	Open
GD0000609	JD0000579	JD0000588	21.5831486954215	110	130	0	Open
GD0000602	JD0000578	JD0000579	55.0056031682636	110	130	0	Open
GD0000485	JD0000477	JD0000478	36.7173485682717	315	130	0	Open
GD0000517	JD0000523	JD0000477	82.4893751463885	200	130	0	Open
GD0000479	JD0000399	JD0000477	778.611872723182	600	130	0	Open
GD0000597	JD0000572	JD0000578	21.3695856241528	110	130	0	Open
GD0000610	JD0000588	JD0000589	102.645557163566	110	130	0	Open
GD0000531	JD0000530	JD0000531	115.757784138725	110	130	0	Open
GD0000592	JD0000571	JD0000572	216.224484089648	160	130	0	Open
GD0000593	JD0000578	JD0000590	63.2922918569539	110	130	0	Open
GD0000524	JD0000478	JD0000524	342.742913307407	300	130	0	Open
GD0000614	JD0000598	JD0000599	117.849789269433	110	130	0	Open
GD0000516	JD0000522	JD0000523	66.8643717980499	110	130	0	Open
GD0000532	JD0000524	JD0000525	31.4354087997237	300	130	0	Open
GD0000515	JD0000521	JD0000522	224.382373443722	110	130	0	Open
GD0000525	JD0000529	JD0000530	49.3064040583305	110	130	0	Open
GD0000526	JD0000530	JD0000532	28.8417195706512	110	130	0	Open
GD0000649	JD0000642	JD0000643	61.191666652888	160	130	0	Open
GD0000557	JD0000570	JD0000571	172.882652956632	160	130	0	Open
GD0000556	JD0000569	JD0000570	16.4807338215327	110	130	0	Open
GD0000616	JD0000597	JD0000598	71.0169000219508	110	130	0	Open
GD0000530	JD0000524	JD0000529	521.748207359243	600	130	0	Open
GD0000555	JD0000568	JD0000569	47.1084116425255	110	130	0	Open
GD0000535	JD0000525	JD0000526	388.784579965821	200	130	0	Open
GD0000599	JD0000593	JD0000594	111.367885453521	110	130	0	Open
GD0000600	JD0000594	JD0000595	49.826598053684	110	130	0	Open
GD0000594	JD0000590	JD0000596	171.361887322065	110	130	0	Open
GD0000519	JD0000518	JD0000519	71.808946986303	200	130	0	Open
GD0000648	JD0000641	JD0000642	30.6500977324125	160	130	0	Open
GD0000591	JD0000569	JD0000644	167.402694567934	160	130	0	Open
GD0000558	JD0000566	JD0000567	48.7345125946806	600	130	0	Open
GD0000554	JD0000567	JD0000568	11.7250485811843	110	130	0	Open
GD0000584	JD0000574	JD0000568	145.485303268496	160	130	0	Open
GD0000469	JD0000475	JD0000476	75.331751967852	110	130	0	Open
GD0000613	JD0000596	JD0000597	156.524845402195	110	130	0	Open
GD0000647	JD0000640	JD0000641	538.463820100128	160	130	0	Open
GD0000583	JD0000576	JD0000574	76.2566114459544	160	130	0	Open
GD0000477	JD0000469	JD0000470	60.1525989227229	110	130	0	Open
GD0000553	JD0000558	JD0000566	228.465012035323	600	130	0	Open
GD0000533	JD0000526	JD0000527	96.0546838661041	110	130	0	Open
GD0000534	JD0000527	JD0000528	70.7557555726201	110	130	0	Open
GD0000518	JD0000511	JD0000518	70.8677250612646	150	130	0	Open
GD0000585	JD0000591	JD0000576	90.3593833140857	110	130	0	Open
GD0000601	JD0000592	JD0000593	56.7090866518909	110	130	0	Open
GD0000588	JD0000566	JD0000573	68.2632464071218	110	130	0	Open
GD0000513	JD0000518	JD0000520	247.673078525478	150	130	0	Open
GD0000468	JD0000471	JD0000475	113.864484904807	110	130	0	Open
GD0000582	JD0000602	JD0000591	205.816895746524	110	130	0	Open
GD0000476	JD0000468	JD0000469	48.8005912621981	150	130	0	Open
GD0000514	JD0000520	JD0000521	28.8470108282811	110	130	0	Open
GD0000475	JD0000467	JD0000468	20.6774103290665	150	130	0	Open
GD0000596	JD0000601	JD0000602	39.8518306738198	110	130	0	Open
GD0000580	JD0000603	JD0000602	124.620406495995	110	130	0	Open
GD0000478	JD0000466	JD0000467	47.0621976306367	150	130	0	Open
GD0000586	JD0000576	JD0000577	85.7725482506179	150	130	0	Open
GD0000595	JD0000596	JD0000601	171.862858776152	110	130	0	Open
GD0000470	JD0000465	JD0000471	65.9894324561015	150	130	0	Open
GD0000520	JD0000511	JD0000512	36.6426448817494	110	130	0	Open
GD0000474	JD0000465	JD0000466	26.8386225003236	150	130	0	Open
GD0000587	JD0000574	JD0000575	131.739407361792	110	130	0	Open
GD0000521	JD0000513	JD0000515	81.4100107684217	300	130	0	Open
GD0000467	JD0000434	JD0000465	192.784992223501	200	130	0	Open
GD0000506	JD0000505	JD0000506	40.6558807404114	110	130	0	Open
GD0000507	JD0000506	JD0000507	29.885544975945	110	130	0	Open
GD0000505	JD0000504	JD0000505	108.807515710767	150	130	0	Open
GD0000473	JD0000472	JD0000474	54.4990374021451	160	130	0	Open
GD0000548	JD0000517	JD0000558	31.4077344554582	600	130	0	Open
GD0000508	JD0000507	JD0000508	26.0602342953474	110	130	0	Open
GD0000579	JD0000617	JD0000603	69.6013797414076	150	130	0	Open
GD0000471	JD0000471	JD0000472	134.676559561075	160	130	0	Open
GD0000536	JD0000513	JD0000514	88.6383001202977	300	130	0	Open
GD0000549	JD0000559	JD0000517	98.7210478060954	600	130	0	Open
GD0000522	JD0000515	JD0000517	129.208202276166	315	130	0	Open
GD0000270	JD0000280	JD0000279	80.0658225224307	160	130	0	Open
GD0000628	JD0000618	JD0000620	69.9328347391382	150	130	0	Open